<?xml version="1.0" encoding="UTF-8"?>
<nodes xmlns:xsi="http://www.w3.org/2001/XMLSchema-instance"
       xsi:noNamespaceSchemaLocation="http://sumo.dlr.de/xsd/nodes_file.xsd">
    <!-- Center intersection node -->
    <node id="C" x="0" y="0" type="traffic_light"/>

    <!-- Peripheral nodes (100m from center) -->
    <node id="N" x="0" y="100" type="priority"/>
    <node id="S" x="0" y="-100" type="priority"/>
    <node id="E" x="100" y="0" type="priority"/>
    <node id="W" x="-100" y="0" type="priority"/>
</nodes>
